<?xml version="1.0" encoding="UTF-8"?>

<!-- generated on 08/20/19 15:23:19 by Eclipse SUMO duarouter Version 1.2.0
<configuration xmlns:xsi="http://www.w3.org/2001/XMLSchema-instance" xsi:noNamespaceSchemaLocation="http://sumo.dlr.de/xsd/duarouterConfiguration.xsd">

    <input>
        <net-file value="pgh_join.net.xml"/>
        <route-files value="trips.trips.xml"/>
    </input>

    <output>
        <output-file value="pgh.rou.xml"/>
        <alternatives-output value="pgh.rou.alt.xml"/>
    </output>

    <time>
        <begin value="0"/>
        <end value="500.0"/>
    </time>

    <report>
        <no-warnings value="true"/>
        <ignore-errors value="true"/>
        <no-step-log value="true"/>
    </report>

</configuration>
-->

<routes xmlns:xsi="http://www.w3.org/2001/XMLSchema-instance" xsi:noNamespaceSchemaLocation="http://sumo.dlr.de/xsd/routes_file.xsd">
    <vehicle id="0" depart="0.00">
        <route edges="-182800427#1 488125920#1 488125920#4 488125920#5 488125920#6 -661624479#1 -661624479#0 -488125922#2 -488125922#1 625220728#1 625220728#2 533444325#0 661624475#1 54448148#1 258055079#1 258055079#2 626067339#0 560900871#1"/>
    </vehicle>
    <vehicle id="2" depart="2.00">
        <route edges="11854171#5 -550018136 -54448151#1 54219360 54219361 146615153#1 146615153#2 550018154 54219343 54219345#0 54219345#1 132781826 11950810 54219337#1 303265986#0 -54448160#0 -303265989 -550018168#1 -550018168#0 550018167#0 550018167#1 54293014 -625479075#2 -625479075#1 -323046623#4 -323046623#1 153230494#1 153230494#2 -321073330#0 -289792306#1 -153284390#0"/>
    </vehicle>
    <vehicle id="3" depart="3.00">
        <route edges="11827159#0 488125920#4 488125920#5 488125920#6 -661624479#1 -661624479#0 -488125922#2 -488125922#1 -54314945#1 -54314945#0 -321073330#0 -289792306#1 289792306#1"/>
    </vehicle>
    <vehicle id="4" depart="4.00">
        <route edges="320911641#4 11811387#1 11811387#3 11811387#5 625179905#0 625179905#1 375197213#1 375197213#2 375197213#3"/>
    </vehicle>
    <vehicle id="5" depart="5.00">
        <route edges="315123595#6 528440883#1 528440883#3 488125926 11835628#1 488125924#0 488125924#1 11729008#1 11729008#2 -488125922#2 -488125922#1 -54314945#1 -54314945#0 -153230494#2 -153230494#1 -153256213#1"/>
    </vehicle>
    <vehicle id="6" depart="6.00">
        <route edges="54313952 54314945#1 488125922#1 488125922#2 661624479#0 661624479#1 -491596671#0 -54800529#1 -54800529#0 491596669 -625179910#2 -625179910#1 -625179910#0 25795342#0 25795342#1 25795342#2 294921120#1"/>
    </vehicle>
    <vehicle id="8" depart="8.00">
        <route edges="171870235 11694303#0 -153256205#4 -153256205#3"/>
    </vehicle>
    <vehicle id="9" depart="9.00">
        <route edges="550018189 54210149#0 54210149#1 54219365 264591786 146615153#0 146615153#1 146615153#2 550018154 54219343 54219345#0 54219345#1 132781826 11950810 54219337#1 303265986#0 -54448160#0 -303265989 -550018168#1 -550018168#0 550018167#0 550018167#1 54293014 -625479075#2 -625479075#1 -323046623#4 -323046623#1 153230494#1 153230494#2"/>
    </vehicle>
    <vehicle id="10" depart="10.00">
        <route edges="532394629#1 -680770719#5 -680770719#1 28685131#1 28685131#3 680770718#0 54800525#1 54800525#2 532394637 146615157#0 146615157#1 146615157#2 146615161 532394641#1 532394641#2"/>
    </vehicle>
    <vehicle id="12" depart="12.00">
        <route edges="11749164#10 11749164#11 115808195 488513969#0 532394645 24867249#1 24867249#2 440151791#2 625179910#0 625179910#1 625179910#2 294921162 488513971 488513964#0 488513964#1 488125926 66473844#1 66473844#2 524664175#1 667962915#0 153256205#1 153256205#2 153256205#3 153256205#4 -153256205#4"/>
    </vehicle>
    <vehicle id="13" depart="13.00">
        <route edges="491596670 -491596670 54800529#0 54800529#1 491596671#0 -661624479#1 -661624479#0 661624478#0 661624478#1 661624478#2 661624478#3 55169716#5"/>
    </vehicle>
    <vehicle id="14" depart="14.00">
        <route edges="11839809#2 11839809#3 625179904#1 -491596669 -572317656#1 -572317656#0 -294921226#1 625851674#1 294921117#0 -294921117#0 -625851674#1"/>
    </vehicle>
    <vehicle id="15" depart="15.00">
        <route edges="488513971 -488513971 -491596670 -572317656#1 -572317656#0 -294921226#1 -54800519#4 -54800519#1 28701041#1 28701041#4 28701041#5 550018159#0 153243438#2 550018059 550018055 303265982#1 550018127 54219360 54219361"/>
    </vehicle>
    <vehicle id="16" depart="16.00">
        <route edges="132781832#0 132781832#1 132781826 11950810 54219337#1 303265986#0 -54448160#0 -303265989 -550018168#1 -550018168#0 550018167#0 550018167#1 54293014 11959395#0 11959395#1"/>
    </vehicle>
    <vehicle id="18" depart="18.00">
        <route edges="153256205#1 -153256205#1 153243446#1 258055057#0 54448148#1 258055048#1"/>
    </vehicle>
    <vehicle id="19" depart="19.00">
        <route edges="550018168#0 550018168#1 303265989 54448160#0 54448159#1 54448159#2 54448154#0 54448154#3 -55169716#5 -55169716#2 55169716#2"/>
    </vehicle>
    <vehicle id="20" depart="20.00">
        <route edges="-146615150#3 -146615150#2 -146615150#1 -146615150#0 54215677#0 54215677#1 146615144#0 146615144#1 308684520#0 308684520#1 308684520#2 308684520#3 11854171#0 11854171#1 11854171#2 11854171#4 11854171#5 -550018136 -54448151#1 54219360 54219361 146615153#1 146615153#2 550018154 54219343 54219345#0 54219345#1 132781826 11950810 54219337#1 303265986#0 -54448160#0 -303265989 11681825#0"/>
    </vehicle>
    <vehicle id="21" depart="21.00">
        <route edges="54448145#2 54215622 54215624 322433963 322433959 54800538 24956925#0 24956925#1 146615150#0 146615150#1"/>
    </vehicle>
    <vehicle id="22" depart="22.00">
        <route edges="-54314945#0 -153230494#2 -153230494#1 323046623#1 -25795333#3 -25795333#2 11729055#1 11729055#2 11729055#3 203322566#1 203322566#2 203322566#3 203320228 203320232#0"/>
    </vehicle>
    <vehicle id="23" depart="23.00">
        <route edges="54448154#3 182800427#1 -54800519#4 -54800519#1 28701041#1 28701041#4 28701041#5 550018159#0 153243438#2 550018059 550018055 303265982#1 550018127 146615152#1 146615152#2 54219368 550018191#0 146615148#0 146615148#1 550018033 146615169#0"/>
    </vehicle>
    <vehicle id="25" depart="25.00">
        <route edges="52304678 121635812 54219362 54219354 54219363 146615152#1 146615152#2 54219368 550018191#0 146615148#0 146615148#1 550018033 146615169#0 146615169#1 532394641#0 532394641#1 146615171 146615157#2"/>
    </vehicle>
    <vehicle id="27" depart="27.00">
        <route edges="203322565 203322566#0 54800530#0 54448154#3 488125920#1 488125920#4 488125920#5 488125920#6 -491596671#0 -54800529#1 -54800529#0 491596669 -625179904#1 -11839809#3 -11839809#2 -11839809#1 320911641#1 320911641#4 11811387#1 -11811387#1"/>
    </vehicle>
    <vehicle id="28" depart="28.00">
        <route edges="550018029#0 146615155 308684520#1 322433953 146615156#0 146615156#1 532394641#0 532394641#1 146615171 146615157#2 146615157#3"/>
    </vehicle>
    <vehicle id="29" depart="29.00">
        <route edges="153256196#1 294921124#1 294921124#2 -302179625 -11689818#4 -11689818#1 302174172#1 302174171#0 302174171#1 153284390#0 289792306#1 321073330#0 54314945#0 54314945#1 488125922#1 488125922#2 661624479#0 661624479#1 -491596671#0 -54800529#1 -54800529#0 491596669 -625179910#2 -625179910#1 -625179910#0 11694033#0 680770719#1 -680770719#1"/>
    </vehicle>
    <vehicle id="30" depart="30.00">
        <route edges="303265981#0 54219350 54219351 550018154 54219343 54219345#0 54219345#1 132781826 11950810 54219337#1 303265986#0 -54448160#0 -303265989 -550018168#1 -550018168#0 550018167#0 550018167#1 54293014 -625479075#2 -625479075#1 -323046623#4 153256196#1 294921124#1 294921124#2"/>
    </vehicle>
    <vehicle id="32" depart="32.00">
        <route edges="54350198 54350039 54350036#2 54350038 24957102 54215644 54215651 54215649 11959751 458657931 54215628 311525727#0 664164214 320911644 171870235 11694303#0 -153256205#4 -153256205#3 -153256205#2 -153256205#1 -667962915#0 -524664175#1 -66473844#2 -66473844#1 66473844#1"/>
    </vehicle>
    <vehicle id="33" depart="33.00">
        <route edges="-153256205#2 -153256205#1 -667962915#0 -524664175#1 -66473844#2 -66473844#1 -488125926 -488513964#1 -488513964#0 -488513971 -294921162 -625179910#2 -625179910#1 -625179910#0 -440151791#2 -24867249#2 -24867249#1 488513965#1 488513965#2 532394637 146615157#0 146615157#1 146615157#2 146615157#3 146615157#4 146615157#5 146615155 308684520#1 308684520#2 308684520#3 550018033 146615146#0 146615146#1"/>
    </vehicle>
    <vehicle id="34" depart="34.00">
        <route edges="54216346#1 171870233#1 171870232 664164215 54216349#2 705172264 705172263 54800539#0 54800539#2 54800539#3 560900871#1 560900871#2 560900882#0 258055044#0 258055036#1 -153243446#1 -667962915#0 -524664175#1 -66473844#2 -66473844#1 -488125926 -488513964#1 -488513964#0 -488513971 -491596670 -572317656#1 -572317656#0 -294921226#1 -54800519#4 -54800519#1 28701041#1 28701041#4 28701041#5 550018159#0 153243438#2 550018059 550018055 54219350"/>
    </vehicle>
    <vehicle id="35" depart="35.00">
        <route edges="294921117#0 294921117#1 294921117#2 294921117#3 294921120#1 -24867249#2 -24867249#1 488513965#1 488513965#2 532394637 146615157#0 146615157#1 146615157#2 146615157#3 146615157#4 146615157#5"/>
    </vehicle>
    <vehicle id="36" depart="36.00">
        <route edges="54293033#1 54293516 -54293516 -54293033#1 -54293033#0 550018168#0 550018168#1 303265989 54448160#0 303265990#1 303265990#2 303265990#3 303265990#4 54448149 -11854171#5"/>
    </vehicle>
    <vehicle id="37" depart="37.00">
        <route edges="54210159 322433964#0 322433964#1 308684520#2 308684520#3 11854171#0 11854171#1 11854171#2 11854171#4 11854171#5 -550018136 -54448151#1 54219360 54219361 146615153#1 146615153#2 550018154 54219343 54219345#0 54219345#1 132781826 11950810 54219337#1 303265986#0 -54448160#0 -303265989 -550018168#1 -550018168#0 550018167#0 550018167#1 54293014 -625479075#2 -625479075#1 -323046623#4 -25795333#3"/>
    </vehicle>
    <vehicle id="40" depart="40.00">
        <route edges="54800522 465065067 303265981#0 303265982#1 550018127 54219359 54219367 54210157 11950069 121593795 550018213#0 550018213#1"/>
    </vehicle>
    <vehicle id="41" depart="41.00">
        <route edges="-54800536#0 11960719#0 28701041#4 28701041#5 550018159#0 153243438#2 550018059"/>
    </vehicle>
    <vehicle id="42" depart="42.00">
        <route edges="-146615150#1 146615150#1 146615150#2 146615150#3 146615151 24956681#0 24956681#2 54448146#0 54448146#1 54448146#3 54448146#5 54448146#6 -680770719#5 -680770719#1 -11694033#0"/>
    </vehicle>
    <vehicle id="43" depart="43.00">
        <route edges="-11712308#2 11947620#0 -625479075#2 -625479075#1 -323046623#4 -25795333#3 -25795333#2 11729055#1 11729055#2 11729055#3 54800530#0 54448154#3"/>
    </vehicle>
    <vehicle id="44" depart="44.00">
        <route edges="488125920#1 488125920#4 488125920#5 488125920#6 -491596671#0 -54800529#1 -54800529#0 491596669 -625179910#2 -625179910#1 -625179910#0 -440151791#2 -24867249#2 -24867249#1 488513965#1 488513965#2 532394637 146615157#0 146615157#1 146615157#2 146615157#3 146615157#4 146615157#5 146615155 308684520#1 308684520#2 308684520#3 550018033 146615169#0 146615169#1"/>
    </vehicle>
    <vehicle id="45" depart="45.00">
        <route edges="488513964#1 -488513964#1 -488513964#0 -488513971 -491596670 -572317656#1 -572317656#0 -294921226#1 -54800519#4 -54800519#1 28701041#1 28701041#4 28701041#5 550018159#0 153243438#2 550018059 550018055 303265982#1 550018127 54219360 54219361 146615153#1 146615153#2"/>
    </vehicle>
    <vehicle id="46" depart="46.00">
        <route edges="153256201#0 -153256201#0 -146615159#1 -532394645 532394645 24867249#1 24867249#2 11853703 11749164#11 11749164#0 11749164#1 11749164#2 11749164#3"/>
    </vehicle>
    <vehicle id="48" depart="48.00">
        <route edges="-323046623#1 153230494#1 153230494#2 54314945#0 54314945#1 488125922#1 488125922#2 661624479#0 661624479#1 -491596671#0 -54800529#1 -54800529#0 491596669 -625179910#2 -625179910#1 -625179910#0 -440151791#2 153256210#1 28685131#3 680770718#0 54448145#1 54448145#2 -54448145#2"/>
    </vehicle>
    <vehicle id="49" depart="49.00">
        <route edges="-59380093#0 -321073329#1 321073329#1 59380093#0 -153284390#0 -302174171#1 -302174171#0 -302174172#1 -28727224#1 -153256213#1 -153256213#0 -625839982#1 55169716#1 55169716#2 55169716#5 182800427#1"/>
    </vehicle>
    <vehicle id="50" depart="50.00">
        <route edges="550018166#1 550018168#0 550018168#1 303265989 54448160#0 54448159#1 11960719#0 11960719#3 11960719#4 146615158#3 146615158#4 625479074 488513968#0 532394645 146615159#1 153256201#0 54448145#1 54448145#2 54448146#0 54448146#1 54448146#3 54448146#5 54448146#6"/>
    </vehicle>
    <vehicle id="52" depart="52.00">
        <route edges="550018189 54210149#0 54210149#1 54219365 264591786 146615153#0 146615153#1 54219352 54219353 303265982#1 550018127 54448151#1 550018136 146615158#0 146615158#3 146615158#4 625479074 488513968#0 532394645 24867249#1 24867249#2 11853703 11749164#11 11749164#0 11749164#1 11749164#2"/>
    </vehicle>
    <vehicle id="53" depart="53.00">
        <route edges="11854171#4 11854171#5 -550018136 -54448151#1 54219359 54219367 54210157 11950069"/>
    </vehicle>
    <vehicle id="55" depart="55.00">
        <route edges="24957023 146615162#0 146615162#1 322433965 146615164 54210147 54210146 121593801 54215680 54350198 54350039 54350036#2 54350038 24956997 24957000 24957020 54210148 54210139 550018190 550018189 54210149#0 54210149#1 54219365 264591786 146615153#0 146615153#1 146615153#2 550018154 54219343 54219345#0 54219345#1 132781826 11950810 54219337#1 303265986#0 -54448160#0 -303265989 -550018168#1 -550018168#0 550018167#0 550018167#1 54293014 -625479075#2 54800535#0 54800535#1"/>
    </vehicle>
    <vehicle id="56" depart="56.00">
        <route edges="171870235 11694303#0 -153256205#4 -153256205#3 -153256205#2 -153256205#1 -54800526#1 11729008#1 11729008#2 -488125922#2 -488125922#1 -54314945#1 -54314945#0 -153230494#2 -153230494#1 323046623#1"/>
    </vehicle>
    <vehicle id="57" depart="57.00">
        <route edges="294921108#2 294921109#1 -153256196#1 323046623#4 625479075#1 625479075#2 -11947620#0"/>
    </vehicle>
    <vehicle id="58" depart="58.00">
        <route edges="-54293033#0 550018168#0 550018168#1 303265989 54448160#0 -54448160#0 -303265989 -550018168#1 -550018168#0 550018167#0 550018167#1 54293014 -625479075#2 -625479075#1 -323046623#4 -323046623#1 153230494#1 153230494#2 54314945#0 54314945#1 625220728#1 625220728#2 533444325#0 661624475#1 54448148#1 258055079#1 258055079#2 626067339#0 -54800539#3 -54800539#2 -54800539#0 11852515#0"/>
    </vehicle>
    <vehicle id="59" depart="59.00">
        <route edges="-11854171#1 11854171#1 11854171#2 11854171#4 11854171#5 -550018136 -54448151#1 54219360 54219361 146615153#1 146615153#2 550018154 54219343 54219345#0 54219345#1 132781826 11950810 54219337#1 303265986#0 -54448160#0 -303265989 -550018168#1 -550018168#0 550018167#0 550018167#1 54293014 -625479075#2 -625479075#1 -323046623#4 -323046623#1 -153256213#1 -153256213#0"/>
    </vehicle>
    <vehicle id="60" depart="60.00">
        <route edges="-11851964#1 54800539#2 54800539#3 560900871#1 560900871#2 560900882#0 258055044#0 258055036#1 -153243446#1 -667962915#0 -524664175#1 -66473844#2 -66473844#1 -488125926 -488513964#1 -488513964#0 -488513971 -491596670 -572317656#1 -572317656#0 -294921226#1 -54800519#4 -54800519#1 28701041#1 28701041#4 28701041#5 550018159#0 153243438#2 550018059 550018055 303265982#1 550018127 54219359"/>
    </vehicle>
    <vehicle id="61" depart="61.00">
        <route edges="-54219346#1 -54219346#0 132781826 11950810 54219337#1 303265986#0 -54448160#0 -303265989 -550018168#1 -550018168#0 -550018184#2 -550018184#1"/>
    </vehicle>
    <vehicle id="62" depart="62.00">
        <route edges="-153256210#1 440151791#2 625179910#0 625179910#1 625179910#2 -491596669 54800529#0 54800529#1 491596671#0 -661624479#1 -661624479#0 -488125922#2 -488125922#1 -54314945#1 -54314945#0 -153230494#2 -153230494#1 323046623#1 323046623#4 625479075#1 625479075#2 -11947620#0"/>
    </vehicle>
    <vehicle id="63" depart="63.00">
        <route edges="532394641#1 532394641#2 625179930 11653776#0 11653776#1 24867249#1 24867249#2 440151791#2 625179910#0 625179910#1 625179910#2 294921162 488513971 488513964#0 488513964#1 488125926 66473844#1 66473844#2 524664175#1 667962915#0 -667962915#0 -524664175#1"/>
    </vehicle>
    <vehicle id="66" depart="66.00">
        <route edges="550018168#1 303265989 54448160#0 54448159#1 11960719#0 11960719#3 11960719#4 146615158#3 146615158#4 625479074 488513968#0 532394645 146615159#1 153256201#0 54448145#1 54448145#2 54448146#0 54448146#1 54448146#3 54448146#5 54448146#6"/>
    </vehicle>
    <vehicle id="67" depart="67.00">
        <route edges="488513964#1 -528440883#3 -528440883#1 572318150#3 625179905#0 625179905#1 375197213#1 375197213#2 375197213#3 375197213#4 680770719#1 680770719#5 54340595#1 11713124#0 11713124#1 11957436#0 11957436#1"/>
    </vehicle>
    <vehicle id="71" depart="71.00">
        <route edges="661624479#1 -661624479#1 -661624479#0 -488125922#2 -488125922#1 625220728#1 625220728#2 533444325#0 -625866832#1"/>
    </vehicle>
    <vehicle id="72" depart="72.00">
        <route edges="54293033#0 54293033#1 54293516 -54293516 -54293033#1 -54293033#0 550018168#0 550018168#1 303265989 54448160#0 54448159#1 54448159#2 54448154#0 54448154#3 488125920#1 488125920#4 488125920#5 488125920#6 488125921#1 488125921#2 488125923#1 524664175#1 667962915#0 153256205#1 153256205#2 153256205#3 153256205#4 315123595#1 315123595#2 315123595#3 315123595#4"/>
    </vehicle>
    <vehicle id="73" depart="73.00">
        <route edges="661624478#1 661624478#2 11827159#4 625220730#2 488125922#1 488125922#2 661624479#0 -661624479#0"/>
    </vehicle>
    <vehicle id="74" depart="74.00">
        <route edges="11827159#3 661624478#3 55169716#5 182800427#1 625851674#1 294921117#0 294921117#1 294921117#2 294921117#3 294921120#1 153256210#1 28685131#3 680770718#0 54448145#1 54448145#2 54448146#0 54448146#1"/>
    </vehicle>
    <vehicle id="75" depart="75.00">
        <route edges="-550018184#1 -550018184#0 550018182#0 550018182#1 52304678 121635812 54219362 54219354 54219363 146615152#1 146615152#2 54219368 550018191#0 146615148#0 146615148#1 550018033 146615146#0 146615146#1 550018029#0 550018029#1 550018029#2"/>
    </vehicle>
    <vehicle id="78" depart="78.00">
        <route edges="-11959751 11959751 458657931 54215628 311525727#0 664164214 320911644 171870235 11694303#0 -153256205#4 -153256205#3 -153256205#2 -153256205#1 -667962915#0 -524664175#1 -66473844#2 -66473844#1"/>
    </vehicle>
    <vehicle id="79" depart="79.00">
        <route edges="146615144#0 146615144#1 308684520#0 308684520#1 308684520#2 308684520#3 11854171#0 11854171#1 11854171#2 11854171#4 11854171#5 -550018136 -54448151#1 146615152#1 146615152#2 54219368"/>
    </vehicle>
    <vehicle id="80" depart="80.00">
        <route edges="572317656#0 -572317656#0 -294921226#1 -54800519#4 -54800519#1 28701041#1 28701041#4 28701041#5 550018159#0 153243438#2 550018059 550018055 303265982#1 550018127"/>
    </vehicle>
    <vehicle id="81" depart="81.00">
        <route edges="66473844#2 -66473844#2 -66473844#1 -488125926 -488513964#1 -488513964#0 -488513971 -294921162 -625179910#2 -625179910#1 -625179910#0 -440151791#2 11853703 11749164#11 115808195 488513969#0"/>
    </vehicle>
    <vehicle id="85" depart="85.00">
        <route edges="264591930#1 550018033 146615146#0 146615146#1 550018029#0 550018029#1 550018029#2 550018029#3 -54215677#1 -54215677#0 146615150#0 146615150#1 146615150#2 146615150#3 146615151 24956681#0 24956681#2 54448146#0 54448146#1 54448146#3 54448146#5 54448146#6 320911640#1 320911640#2 -54340594#0 -28388921"/>
    </vehicle>
    <vehicle id="87" depart="87.00">
        <route edges="54219354 54219363 146615152#1 146615152#2 54219368 550018191#0 146615148#0 146615148#1 550018033 146615169#0 146615169#1 532394641#0 532394641#1 532394641#2 625179930"/>
    </vehicle>
    <vehicle id="88" depart="88.00">
        <route edges="323046621 -323046621 -156470326 -11712308#2 -11712308#1 550018182#0 550018182#1 52304678 121635812 54219362 54219354 54219363 54219360 54219361 146615153#1 146615153#2"/>
    </vehicle>
    <vehicle id="89" depart="89.00">
        <route edges="171870235 54216346#0 54216346#1 171870233#1 171870232 664164215 -54216349#0 -54216348 -311525727#1 -311525727#0 -54215628 -458657931 -11959751 322433961 24956916 54800538 24956925#0 54215674"/>
    </vehicle>
    <vehicle id="90" depart="90.00">
        <route edges="-52304684 52304684 54800522 465065067 303265981#0"/>
    </vehicle>
    <vehicle id="91" depart="91.00">
        <route edges="-24867249#2 24867249#2 440151791#2 625179910#0 625179910#1 625179910#2 294921162 488513971 488513964#0 488513964#1 -528440883#3 -528440883#1 572318150#3 -11811387#5"/>
    </vehicle>
    <vehicle id="92" depart="92.00">
        <route edges="11839809#1 11839809#2 11839809#3 625179904#1 294921162 488513971 488513964#0 488513964#1 488125926 11835628#1 -11835628#1"/>
    </vehicle>
    <vehicle id="93" depart="93.00">
        <route edges="550018051 303265983#0 153243438#2 550018059 550018055 303265982#1 550018127 54219360 54219361 146615153#1 54219352"/>
    </vehicle>
    <vehicle id="94" depart="94.00">
        <route edges="-323046623#1 28727224#1 11689818#1 11689818#4 302179625 11729070#0"/>
    </vehicle>
    <vehicle id="95" depart="95.00">
        <route edges="-491596669 491596669 -625179910#2 -625179910#1 -625179910#0 25795342#0 25795342#1"/>
    </vehicle>
    <vehicle id="96" depart="96.00">
        <route edges="153230494#1 153230494#2 54314945#0 54314945#1 488125922#1 488125922#2 661624479#0 661624479#1 -491596671#0 -54800529#1 -54800529#0 491596670 488513971 488513964#0"/>
    </vehicle>
    <vehicle id="97" depart="97.00">
        <route edges="320911641#6 54340593#1 54340593#2 54340593#4 625179929#0 528440883#1 528440883#3 488125926 11835628#1 488125924#0 488125924#1 11729008#1 11729008#2 -488125922#2 -488125922#1 -54314945#1 -54314945#0 -153230494#2 -153230494#1 323046623#1 323046623#4 625479075#1 54800534#0"/>
    </vehicle>
    <vehicle id="98" depart="98.00">
        <route edges="550018154 54219343 54219345#0 54219345#1 132781826 11950810 54219337#1 303265986#0 54448159#1 54448159#2 54448154#0 54800531#1 54800519#4 -182800427#1"/>
    </vehicle>
    <vehicle id="99" depart="99.00">
        <route edges="121593802 24956755 24956710 264753381 24956732 24956736 24956750 322433957 24956681#0 24956681#2 54448146#0 54448146#1 54448146#3 54448146#5 54448146#6 -680770719#5 -680770719#1 28685131#1 28685131#3"/>
    </vehicle>
    <vehicle id="100" depart="100.00">
        <route edges="-55169716#5 11722268#1 203322565 203322566#0 54800530#0 54800531#1 -54800519#1 28701041#1 28701041#4 28701041#5 550018159#0 153243438#2 550018059 550018055 303265982#1 550018127 54219359 54219367 54210157 11950069 54210154"/>
    </vehicle>
    <vehicle id="101" depart="101.00">
        <route edges="54216381 54215649 322433961 24956916 54800538 24956925#0 54215674"/>
    </vehicle>
    <vehicle id="102" depart="102.00">
        <route edges="320911641#5 320911641#6 54340593#1 54340593#2 54340593#4 625179929#0 528440883#1 528440883#3 488125926 11835628#1 488125924#0 488125924#1 625866832#1"/>
    </vehicle>
    <vehicle id="103" depart="103.00">
        <route edges="146615157#4 146615157#5 146615155 308684520#1 322433953 146615156#0 146615156#1 532394641#0 532394641#1 532394641#2 625179930 11653776#0 11653776#1 24867249#1 24867249#2 440151791#2 625179910#0 625179910#1 625179910#2 294921162 488513971 488513964#0 488513964#1 488125926 66473844#1 66473844#2 524664175#1 667962915#0 153256205#1 153256205#2 153256205#3 153256205#4 -11694303#0 54216346#0 54216346#1 171870233#1 171870232"/>
    </vehicle>
    <vehicle id="104" depart="104.00">
        <route edges="572317656#1 54800529#0 54800529#1 491596671#0 -661624479#1 -661624479#0 -488125922#2 -488125922#1 -54314945#1 -54314945#0 -321073330#0 -289792306#1 -153284390#0 -302174171#1 -302174171#0 -302174172#1 11689818#1 -11689818#1"/>
    </vehicle>
    <vehicle id="106" depart="106.00">
        <route edges="572317656#0 572317656#1 54800529#0 54800529#1 491596671#0 -661624479#1 -661624479#0 -488125922#2 -488125922#1"/>
    </vehicle>
    <vehicle id="108" depart="108.00">
        <route edges="28685131#1 -153256210#1 -294921120#1 -294921117#3 -294921117#2 -294921117#1 -294921117#0 -625851674#1 -54800519#4 -54800519#1 28701041#1 28701041#4 -303265990#1 -54448160#0 -303265989 -550018168#1 -550018168#0 54293033#0 54293033#1"/>
    </vehicle>
    <vehicle id="109" depart="109.00">
        <route edges="-54800539#2 54800539#2 54800539#3 560900871#1 560900871#2 560900882#0 258055044#0 258055036#1 -153243446#1 -667962915#0 -524664175#1 -66473844#2 -66473844#1 -488125926 -528440883#3 -528440883#1 572318150#3 625179905#0 625179905#1 375197213#1 375197213#2 375197213#3 375197213#4 28685131#1 28685131#3 680770718#0 -153256201#0 -146615159#1"/>
    </vehicle>
    <vehicle id="110" depart="110.00">
        <route edges="-625220727#0 -11838497#1 11838497#1 625220727#0 625220727#1 321072662 321073328 321073329#0 321073329#1 59380093#0 -153284390#0 -302174171#1 -302174171#0 -302174172#1 -28727224#1 -153256213#1 -153256213#0 -625839982#1 55169716#1 55169716#2"/>
    </vehicle>
    <vehicle id="112" depart="112.00">
        <route edges="-11729070#2 -11729070#1 -11729070#0 -294921124#2 -294921124#1 -153256196#1 323046623#4 625479075#1 625479075#2 550018166#0 550018166#1 550018168#0 550018168#1 303265989 54448160#0 303265990#1 303265990#2 303265990#3 303265990#4 54448149 -550018136"/>
    </vehicle>
    <vehicle id="113" depart="113.00">
        <route edges="-289792306#1 -153284390#0 -302174171#1 -302174171#0 -302174172#1 -28727224#1 323046623#1 323046623#4 625479075#1 625479075#2"/>
    </vehicle>
    <vehicle id="114" depart="114.00">
        <route edges="146615155 308684520#1 322433953 146615156#0 146615156#1 532394641#0 532394641#1 532394641#2 625179930 11653776#0 11653776#1 24867249#1 24867249#2 440151791#2 625179910#0 625179910#1 625179910#2 294921162 488513971 488513964#0 488513964#1 -528440883#3 -528440883#1 572318150#3 625179905#0"/>
    </vehicle>
    <vehicle id="115" depart="115.00">
        <route edges="465065067 303265981#0 54219350 54219351 550018154 54219343 54219345#0 54219345#1 132781826 11950810 54219337#1 303265986#0 -54448160#0"/>
    </vehicle>
    <vehicle id="116" depart="116.00">
        <route edges="-54309883#1 -54309883#0 -11729070#1 -11729070#0 -302179625 -11689818#4 -11689818#1 302174172#1 302174171#0 302174171#1 153284390#0 289792306#1 321073330#0 54314945#0 54314945#1 488125922#1 488125922#2 661624479#0 661624479#1 -491596671#0 -54800529#1 -54800529#0 491596669 -625179904#1 -11839809#3 -11839809#2 -11839809#1"/>
    </vehicle>
    <vehicle id="118" depart="118.00">
        <route edges="54210149#0 54210149#1 54219365 264591786 146615153#0 146615153#1 54219352 54219353 303265982#1 550018127 54448151#1 550018136 146615158#0 146615158#3 146615158#4 625479074 488513968#0 532394645 24867249#1 24867249#2 153256210#1 28685131#3 680770718#0"/>
    </vehicle>
    <vehicle id="120" depart="120.00">
        <route edges="488125920#6 -661624479#1 -661624479#0 -488125922#2 -488125922#1 -54314945#1 -54314945#0 -153230494#2 -153230494#1 323046623#1 -25795333#3 -25795333#2 11729055#1 11729055#2"/>
    </vehicle>
    <vehicle id="121" depart="121.00">
        <route edges="11960719#3 52304684 -303265990#2 -303265990#1 -54448160#0 -303265989 -550018168#1 -550018168#0 550018167#0 550018167#1 54293014 -625479075#2 -625479075#1 -323046623#4 -323046623#1 153230494#1 153230494#2 54314945#0 54314945#1 625220728#1 625220728#2 533444325#0 661624475#1 54448148#1 258055079#1 258055079#2 626067339#0 -54800539#3 -54800539#2 -54800539#0 11852515#0 11852515#1 171870239 -54216349#2 -54216349#0 -54216348"/>
    </vehicle>
    <vehicle id="123" depart="123.00">
        <route edges="54293033#0 54293033#1 54293516 -54293516 -54293033#1 -54293033#0 550018168#0 550018168#1 303265989 54448160#0 303265990#1 28701041#5 550018159#0 153243438#2 550018059 550018055 303265982#1 550018127 146615152#1 146615152#2 54219368 550018191#0 146615148#0 146615148#1 550018033 146615169#0 146615169#1 532394641#0"/>
    </vehicle>
    <vehicle id="124" depart="124.00">
        <route edges="146615164 54210147 54210146 121593801 54215680 54350198 54350039 54350036#2 54350038 24956997 24957000 24957020 54210148 54210139 550018190 550018189 54210149#0 54210149#1 54219365 264591786 146615153#0 146615153#1 54219352 54219353 303265982#1 550018127 54448151#1 550018136 -54448149 -303265990#4 -303265990#3 54800522 303265980#0 303265980#1"/>
    </vehicle>
    <vehicle id="125" depart="125.00">
        <route edges="-302179625 -11689818#4 294921109#1 -153256196#1 323046623#4 625479075#1 625479075#2 -11947620#0 -11712308#1 550018184#0 550018184#1 550018184#2 54293033#0 54293033#1"/>
    </vehicle>
    <vehicle id="126" depart="126.00">
        <route edges="-11811387#1 320911641#5 320911641#6 54340593#1 54340593#2 54340593#4 625179929#0 528440883#1 528440883#3 488125926 66473844#1 66473844#2 -66473844#2"/>
    </vehicle>
    <vehicle id="127" depart="127.00">
        <route edges="-303265989 -550018168#1 -550018168#0 550018167#0 550018167#1 54293014 -625479075#2 -625479075#1 -323046623#4 -323046623#1 153230494#1 153230494#2 54314945#0 54314945#1 488125922#1 488125922#2 661624479#0 661624479#1 -491596671#0 -54800529#1 -54800529#0 491596669 -625179904#1 625179904#1"/>
    </vehicle>
    <vehicle id="128" depart="128.00">