<?xml version="1.0" encoding="UTF-8"?>
<!-- generated on 2019-08-20 15:23:19.279488 by $Id$
  options: -n pgh_join.net.xml -r pgh.rou.xml -e 500 - l
-->
<routes xmlns:xsi="http://www.w3.org/2001/XMLSchema-instance" xsi:noNamespaceSchemaLocation="http://sumo.dlr.de/xsd/routes_file.xsd">
    <trip id="0" depart="0.00" from="-182800427#1" to="560900871#1"/>
    <trip id="1" depart="1.00" from="54210157" to="661624479#0"/>
    <trip id="2" depart="2.00" from="11854171#5" to="-153284390#0"/>
    <trip id="3" depart="3.00" from="11827159#0" to="289792306#1"/>
    <trip id="4" depart="4.00" from="320911641#4" to="375197213#3"/>
    <trip id="5" depart="5.00" from="315123595#6" to="-153256213#1"/>
    <trip id="6" depart="6.00" from="54313952" to="294921120#1"/>
    <trip id="7" depart="7.00" from="54210141" to="52304698#1"/>
    <trip id="8" depart="8.00" from="171870235" to="-153256205#3"/>
    <trip id="9" depart="9.00" from="550018189" to="153230494#2"/>
    <trip id="10" depart="10.00" from="532394629#1" to="532394641#2"/>
    <trip id="11" depart="11.00" from="667962915#0" to="-24957174#3"/>
    <trip id="12" depart="12.00" from="11749164#10" to="-153256205#4"/>
    <trip id="13" depart="13.00" from="491596670" to="55169716#5"/>
    <trip id="14" depart="14.00" from="11839809#2" to="-625851674#1"/>
    <trip id="15" depart="15.00" from="488513971" to="54219361"/>
    <trip id="16" depart="16.00" from="132781832#0" to="11959395#1"/>
    <trip id="17" depart="17.00" from="625361999" to="625866852#1"/>
    <trip id="18" depart="18.00" from="153256205#1" to="258055048#1"/>
    <trip id="19" depart="19.00" from="550018168#0" to="55169716#2"/>
    <trip id="20" depart="20.00" from="-146615150#3" to="11681825#0"/>
    <trip id="21" depart="21.00" from="54448145#2" to="146615150#1"/>
    <trip id="22" depart="22.00" from="-54314945#0" to="203320232#0"/>
    <trip id="23" depart="23.00" from="54448154#3" to="146615169#0"/>
    <trip id="24" depart="24.00" from="11854538#3" to="625866852#2"/>
    <trip id="25" depart="25.00" from="52304678" to="146615157#2"/>
    <trip id="26" depart="26.00" from="-131436381#1" to="24957020"/>
    <trip id="27" depart="27.00" from="203322565" to="-11811387#1"/>
    <trip id="28" depart="28.00" from="550018029#0" to="146615157#3"/>
    <trip id="29" depart="29.00" from="153256196#1" to="-680770719#1"/>
    <trip id="30" depart="30.00" from="303265981#0" to="294921124#2"/>
    <trip id="31" depart="31.00" from="705172264" to="-11652868#4"/>
    <trip id="32" depart="32.00" from="54350198" to="66473844#1"/>
    <trip id="33" depart="33.00" from="-153256205#2" to="146615146#1"/>
    <trip id="34" depart="34.00" from="54216346#1" to="54219350"/>
    <trip id="35" depart="35.00" from="294921117#0" to="146615157#5"/>
    <trip id="36" depart="36.00" from="54293033#1" to="-11854171#5"/>
    <trip id="37" depart="37.00" from="54210159" to="-25795333#3"/>
    <trip id="38" depart="38.00" from="121635814" to="-303265990#1"/>
    <trip id="39" depart="39.00" from="24957077#0" to="625179910#1"/>
    <trip id="40" depart="40.00" from="54800522" to="550018213#1"/>
    <trip id="41" depart="41.00" from="-54800536#0" to="550018059"/>
    <trip id="42" depart="42.00" from="-146615150#1" to="-11694033#0"/>
    <trip id="43" depart="43.00" from="-11712308#2" to="54448154#3"/>
    <trip id="44" depart="44.00" from="488125920#1" to="146615169#1"/>
    <trip id="45" depart="45.00" from="488513964#1" to="146615153#2"/>
    <trip id="46" depart="46.00" from="153256201#0" to="11749164#3"/>
    <trip id="47" depart="47.00" from="-11947620#0" to="-406040523#0"/>
    <trip id="48" depart="48.00" from="-323046623#1" to="-54448145#2"/>
    <trip id="49" depart="49.00" from="-59380093#0" to="182800427#1"/>
    <trip id="50" depart="50.00" from="550018166#1" to="54448146#6"/>
    <trip id="51" depart="51.00" from="54329389" to="320911641#4"/>
    <trip id="52" depart="52.00" from="550018189" to="11749164#2"/>
    <trip id="53" depart="53.00" from="11854171#4" to="11950069"/>
    <trip id="54" depart="54.00" from="11959395#1" to="264753381"/>
    <trip id="55" depart="55.00" from="24957023" to="54800535#1"/>
    <trip id="56" depart="56.00" from="171870235" to="323046623#1"/>
    <trip id="57" depart="57.00" from="294921108#2" to="-11947620#0"/>
    <trip id="58" depart="58.00" from="-54293033#0" to="11852515#0"/>
    <trip id="59" depart="59.00" from="-11854171#1" to="-153256213#0"/>
    <trip id="60" depart="60.00" from="-11851964#1" to="54219359"/>
    <trip id="61" depart="61.00" from="-54219346#1" to="-550018184#1"/>
    <trip id="62" depart="62.00" from="-153256210#1" to="-11947620#0"/>
    <trip id="63" depart="63.00" from="532394641#1" to="-524664175#1"/>
    <trip id="64" depart="64.00" from="11854538#0" to="11695903#7"/>
    <trip id="65" depart="65.00" from="-488513968#0" to="24957174#4"/>
    <trip id="66" depart="66.00" from="550018168#1" to="54448146#6"/>
    <trip id="67" depart="67.00" from="488513964#1" to="11957436#1"/>
    <trip id="68" depart="68.00" from="24957000" to="11652868#1"/>
    <trip id="69" depart="69.00" from="52304698#1" to="11729008#2"/>
    <trip id="70" depart="70.00" from="11652868#2" to="-488513971"/>
    <trip id="71" depart="71.00" from="661624479#1" to="-625866832#1"/>
    <trip id="72" depart="72.00" from="54293033#0" to="315123595#4"/>
    <trip id="73" depart="73.00" from="661624478#1" to="-661624479#0"/>
    <trip id="74" depart="74.00" from="11827159#3" to="54448146#1"/>
    <trip id="75" depart="75.00" from="-550018184#1" to="550018029#2"/>
    <trip id="76" depart="76.00" from="54329395" to="-24867249#1"/>
    <trip id="77" depart="77.00" from="59380088" to="322433964#0"/>
    <trip id="78" depart="78.00" from="-11959751" to="-66473844#1"/>
    <trip id="79" depart="79.00" from="146615144#0" to="54219368"/>
    <trip id="80" depart="80.00" from="572317656#0" to="550018127"/>
    <trip id="81" depart="81.00" from="66473844#2" to="488513969#0"/>
    <trip id="82" depart="82.00" from="54310978" to="11729055#1"/>
    <trip id="83" depart="83.00" from="-406040523#4" to="-524664175#1"/>
    <trip id="84" depart="84.00" from="54219345#0" to="-11652868#2"/>
    <trip id="85" depart="85.00" from="264591930#1" to="-28388921"/>
    <trip id="86" depart="86.00" from="54309883#1" to="24956710"/>
    <trip id="87" depart="87.00" from="54219354" to="625179930"/>
    <trip id="88" depart="88.00" from="323046621" to="146615153#2"/>
    <trip id="89" depart="89.00" from="171870235" to="54215674"/>
    <trip id="90" depart="90.00" from="-52304684" to="303265981#0"/>
    <trip id="91" depart="91.00" from="-24867249#2" to="-11811387#5"/>
    <trip id="92" depart="92.00" from="11839809#1" to="-11835628#1"/>
    <trip id="93" depart="93.00" from="550018051" to="54219352"/>
    <trip id="94" depart="94.00" from="-323046623#1" to="11729070#0"/>
    <trip id="95" depart="95.00" from="-491596669" to="25795342#1"/>
    <trip id="96" depart="96.00" from="153230494#1" to="488513964#0"/>
    <trip id="97" depart="97.00" from="320911641#6" to="54800534#0"/>
    <trip id="98" depart="98.00" from="550018154" to="-182800427#1"/>
    <trip id="99" depart="99.00" from="121593802" to="28685131#3"/>
    <trip id="100" depart="100.00" from="-55169716#5" to="54210154"/>
    <trip id="101" depart="101.00" from="54216381" to="54215674"/>
    <trip id="102" depart="102.00" from="320911641#5" to="625866832#1"/>
    <trip id="103" depart="103.00" from="146615157#4" to="171870232"/>
    <trip id="104" depart="104.00" from="572317656#1" to="-11689818#1"/>
    <trip id="105" depart="105.00" from="-11854538#3" to="24957029"/>
    <trip id="106" depart="106.00" from="572317656#0" to="-488125922#1"/>
    <trip id="107" depart="107.00" from="-54448160#0" to="24956755"/>
    <trip id="108" depart="108.00" from="28685131#1" to="54293033#1"/>
    <trip id="109" depart="109.00" from="-54800539#2" to="-146615159#1"/>
    <trip id="110" depart="110.00" from="-625220727#0" to="55169716#2"/>
    <trip id="111" depart="111.00" from="11681825#0" to="-11652868#3"/>
    <trip id="112" depart="112.00" from="-11729070#2" to="-550018136"/>
    <trip id="113" depart="113.00" from="-289792306#1" to="625479075#2"/>
    <trip id="114" depart="114.00" from="146615155" to="625179905#0"/>
    <trip id="115" depart="115.00" from="465065067" to="-54448160#0"/>
    <trip id="116" depart="116.00" from="-54309883#1" to="-11839809#1"/>
    <trip id="117" depart="117.00" from="-11652868#1" to="54310978"/>
    <trip id="118" depart="118.00" from="54210149#0" to="680770718#0"/>
    <trip id="119" depart="119.00" from="-54216348" to="24956732"/>
    <trip id="120" depart="120.00" from="488125920#6" to="11729055#2"/>
    <trip id="121" depart="121.00" from="11960719#3" to="-54216348"/>
    <trip id="122" depart="122.00" from="625362001#1" to="320911644"/>
    <trip id="123" depart="123.00" from="54293033#0" to="532394641#0"/>
    <trip id="124" depart="124.00" from="146615164" to="303265980#1"/>
    <trip id="125" depart="125.00" from="-302179625" to="54293033#1"/>
    <trip id="126" depart="126.00" from="-11811387#1" to="-66473844#2"/>
    <trip id="127" depart="127.00" from="-303265989" to="625179904#1"/>
    <trip id="128" depart="128.00" from="11749164#8" to="680770719#5"/>
    <trip id="129" depart="129.00" from="-303265990#4" to="550018047#0"/>
    <trip id="130" depart="130.00" from="-532394645" to="11729070#2"/>
    <trip id="131" depart="131.00" from="-11947620#0" to="320911642#2"/>
    <trip id="132" depart="132.00" from="59380086" to="-406040521#0"/>
    <trip id="133" depart="133.00" from="11729055#1" to="54313946"/>
    <trip id="134" depart="134.00" from="-153256205#3" to="11838497#1"/>
    <trip id="135" depart="135.00" from="146615158#0" to="-54800519#4"/>
    <trip id="136" depart="136.00" from="24722779#0" to="54219362"/>
    <trip id="137" depart="137.00" from="146615169#1" to="-54340595#1"/>
    <trip id="138" depart="138.00" from="-54800526#1" to="258055044#0"/>
    <trip id="139" depart="139.00" from="54219359" to="465065067"/>
    <trip id="140" depart="140.00" from="-303265990#2" to="625179905#0"/>
    <trip id="141" depart="141.00" from="24956755" to="-11694033#0"/>
    <trip id="142" depart="142.00" from="28701041#4" to="11950810"/>
    <trip id="143" depart="143.00" from="24957102" to="54219343"/>
    <trip id="144" depart="144.00" from="24956681#2" to="294921120#1"/>
    <trip id="145" depart="145.00" from="625220730#1" to="54215651"/>
    <trip id="146" depart="146.00" from="303265987#1" to="11827159#3"/>
    <trip id="147" depart="147.00" from="303265984#0" to="11959751"/>
    <trip id="148" depart="148.00" from="52304684" to="146615157#2"/>
    <trip id="149" depart="149.00" from="323046621" to="375197213#3"/>
    <trip id="150" depart="150.00" from="488125921#2" to="153230494#1"/>
    <trip id="151" depart="151.00" from="-680770719#1" to="612979969"/>
    <trip id="152" depart="152.00" from="533568130#0" to="153230494#1"/>
    <trip id="153" depart="153.00" from="54210159" to="-488513971"/>
    <trip id="154" depart="154.00" from="625851674#1" to="-550018184#0"/>
    <trip id="155" depart="155.00" from="-108295615#1" to="-406040523#0"/>
    <trip id="156" depart="156.00" from="311525727#0" to="560900871#2"/>
    <trip id="157" depart="157.00" from="171870239" to="11952686"/>
    <trip id="158" depart="158.00" from="54800539#3" to="-54215628"/>
    <trip id="159" depart="159.00" from="625866852#0" to="54216346#0"/>
    <trip id="160" depart="160.00" from="146615169#1" to="667962915#0"/>
    <trip id="161" depart="161.00" from="661624478#0" to="-153256213#1"/>
    <trip id="162" depart="162.00" from="54216381" to="24956925#1"/>
    <trip id="163" depart="163.00" from="54800535#0" to="-156470326"/>
    <trip id="164" depart="164.00" from="-11836235#1" to="54329426"/>
    <trip id="165" depart="165.00" from="-11652868#5" to="625866833#3"/>
    <trip id="166" depart="166.00" from="153256210#1" to="550018154"/>
    <trip id="167" depart="167.00" from="121635812" to="625839982#1"/>
    <trip id="168" depart="168.00" from="-11689818#4" to="54219367"/>
    <trip id="169" depart="169.00" from="11695903#2" to="-54314945#1"/>
    <trip id="170" depart="170.00" from="54800539#0" to="550018193"/>
    <trip id="171" depart="171.00" from="54216346#1" to="24722779#1"/>
    <trip id="172" depart="172.00" from="322433953" to="11960719#3"/>
    <trip id="173" depart="173.00" from="-54448160#0" to="121593801"/>
    <trip id="174" depart="174.00" from="54210149#1" to="54310978"/>
    <trip id="175" depart="175.00" from="264753387" to="24956714"/>
    <trip id="176" depart="176.00" from="294921108#1" to="264753383"/>
    <trip id="177" depart="177.00" from="-303265979" to="24957039"/>
    <trip id="178" depart="178.00" from="203322566#2" to="625479075#1"/>
    <trip id="179" depart="179.00" from="24956997" to="-289792306#1"/>
    <trip id="180" depart="180.00" from="11681825#0" to="466749735#5"/>
    <trip id="181" depart="181.00" from="572317656#1" to="264753387"/>
    <trip id="182" depart="182.00" from="-625179910#2" to="-11854171#2"/>
    <trip id="183" depart="183.00" from="-54800539#0" to="-55169716#5"/>
    <trip id="184" depart="184.00" from="54329430" to="24956732"/>
    <trip id="185" depart="185.00" from="-146615150#0" to="-11715479#0"/>
    <trip id="186" depart="186.00" from="406040523#2" to="11749164#10"/>
    <trip id="187" depart="187.00" from="54216349#0" to="146615153#1"/>
    <trip id="188" depart="188.00" from="52304698#2" to="315123595#3"/>
    <trip id="189" depart="189.00" from="-311525727#0" to="625851674#1"/>
    <trip id="190" depart="190.00" from="-54216349#0" to="11695903#1"/>
    <trip id="191" depart="191.00" from="302179625" to="320911644"/>
    <trip id="192" depart="192.00" from="-54800539#3" to="-11959751"/>
    <trip id="193" depart="193.00" from="625362064" to="54210148"/>
    <trip id="194" depart="194.00" from="11959395#0" to="-54309883#1"/>
    <trip id="195" depart="195.00" from="146615169#0" to="321073329#1"/>
    <trip id="196" depart="196.00" from="28411466#0" to="-54448145#1"/>
    <trip id="197" depart="197.00" from="11957436#0" to="705172264"/>
    <trip id="198" depart="198.00" from="-146615159#1" to="-146615148#0"/>
    <trip id="199" depart="199.00" from="28411466#0" to="54448154#3"/>
    <trip id="200" depart="200.00" from="-24957174#4" to="203322566#2"/>
    <trip id="201" depart="201.00" from="-11854171#0" to="294921120#1"/>
    <trip id="202" depart="202.00" from="625866833#1" to="550018213#1"/>
    <trip id="203" depart="203.00" from="-54215677#1" to="24722798#1"/>
    <trip id="204" depart="204.00" from="11811387#1" to="11652868#2"/>
    <trip id="205" depart="205.00" from="153256205#4" to="705172263"/>
    <trip id="206" depart="206.00" from="-108295615#1" to="320911641#6"/>
    <trip id="207" depart="207.00" from="550018190" to="322433963"/>
    <trip id="208" depart="208.00" from="-11729070#1" to="625362000"/>
    <trip id="209" depart="209.00" from="-28727224#1" to="11827159#0"/>
    <trip id="210" depart="210.00" from="24957107" to="294921162"/>
    <trip id="211" depart="211.00" from="59380093#0" to="-625479075#2"/>
    <trip id="212" depart="212.00" from="-303265990#4" to="258055079#1"/>
    <trip id="213" depart="213.00" from="59380086" to="11959751"/>
    <trip id="214" depart="214.00" from="54448145#2" to="-54293033#1"/>
    <trip id="215" depart="215.00" from="11839809#3" to="11959395#2"/>
    <trip id="216" depart="216.00" from="54314945#0" to="-153256205#1"/>
    <trip id="217" depart="217.00" from="54340593#2" to="115808195"/>
    <trip id="218" depart="218.00" from="-406040523#2" to="-11838497#1"/>
    <trip id="219" depart="219.00" from="528440883#1" to="626067339#0"/>
    <trip id="220" depart="220.00" from="54219366" to="-406040523#4"/>
    <trip id="221" depart="221.00" from="320911640#1" to="-11713124#1"/>
    <trip id="222" depart="222.00" from="146615152#2" to="11950069"/>
    <trip id="223" depart="223.00" from="-11694303#0" to="54219361"/>
    <trip id="224" depart="224.00" from="11703696" to="54219354"/>
    <trip id="225" depart="225.00" from="146615168" to="146615157#2"/>
    <trip id="226" depart="226.00" from="680770719#5" to="54800539#2"/>
    <trip id="227" depart="227.00" from="-54215628" to="264591970"/>
    <trip id="228" depart="228.00" from="115808195" to="-406040523#5"/>
    <trip id="229" depart="229.00" from="-488125924#1" to="25795342#1"/>
    <trip id="230" depart="230.00" from="-146615158#3" to="11853703"/>
    <trip id="231" depart="231.00" from="11950810" to="146615162#0"/>
    <trip id="232" depart="232.00" from="54215624" to="-406040523#0"/>
    <trip id="233" depart="233.00" from="550018166#1" to="54210162"/>
    <trip id="234" depart="234.00" from="11652868#4" to="560900871#1"/>
    <trip id="235" depart="235.00" from="-11854171#0" to="11695903#7"/>
    <trip id="236" depart="236.00" from="-153256201#0" to="488125921#1"/>
    <trip id="237" depart="237.00" from="303265990#4" to="258055044#0"/>
    <trip id="238" depart="238.00" from="-294921226#1" to="-54293033#1"/>
    <trip id="239" depart="239.00" from="11852515#1" to="54800515"/>
    <trip id="240" depart="240.00" from="11712252" to="153230494#1"/>
    <trip id="241" depart="241.00" from="550018189" to="532394634#1"/>
    <trip id="242" depart="242.00" from="54215674" to="11722268#1"/>
    <trip id="243" depart="243.00" from="-661624476#1" to="28727224#1"/>
    <trip id="244" depart="244.00" from="625479075#1" to="54215654"/>
    <trip id="245" depart="245.00" from="-294921124#1" to="54448160#0"/>
    <trip id="246" depart="246.00" from="-54216348" to="24956736"/>
    <trip id="247" depart="247.00" from="661624475#1" to="533444328"/>
    <trip id="248" depart="248.00" from="-302179625" to="11853703"/>
    <trip id="249" depart="249.00" from="11839809#2" to="-153256213#1"/>
    <trip id="250" depart="250.00" from="303265980#1" to="24957174#5"/>
    <trip id="251" depart="251.00" from="24957174#3" to="153243435"/>
    <trip id="252" depart="252.00" from="11852515#1" to="11818737#1"/>
    <trip id="253" depart="253.00" from="-54448145#2" to="-303265990#1"/>
    <trip id="254" depart="254.00" from="550018168#1" to="533568130#0"/>
    <trip id="255" depart="255.00" from="11854171#5" to="11957966#1"/>
    <trip id="256" depart="256.00" from="661624475#1" to="54293039#0"/>
    <trip id="257" depart="257.00" from="625362000" to="-303265989"/>
    <trip id="258" depart="258.00" from="54448146#0" to="11952686"/>
    <trip id="259" depart="259.00" from="54216349#0" to="661624476#1"/>
    <trip id="260" depart="260.00" from="54210143" to="294921117#2"/>
    <trip id="261" depart="261.00" from="54219341#0" to="302174171#1"/>
    <trip id="262" depart="262.00" from="625479075#2" to="11839809#2"/>
    <trip id="263" depart="263.00" from="54800534#0" to="-528440883#1"/>
    <trip id="264" depart="264.00" from="258055079#2" to="-311525727#1"/>
    <trip id="265" depart="265.00" from="25795333#3" to="294921109#1"/>
    <trip id="266" depart="266.00" from="-550018184#2" to="320911641#4"/>
    <trip id="267" depart="267.00" from="311525727#0" to="488125921#1"/>
    <trip id="268" depart="268.00" from="11695903#7" to="-59380093#0"/>
    <trip id="269" depart="269.00" from="54301415" to="-302174171#1"/>
    <trip id="270" depart="270.00" from="-680770719#5" to="488125924#0"/>
    <trip id="271" depart="271.00" from="121593801" to="54216348"/>
    <trip id="272" depart="272.00" from="146615164" to="-11712308#2"/>
    <trip id="273" depart="273.00" from="-11715479#0" to="-54800519#1"/>
    <trip id="274" depart="274.00" from="-321073329#1" to="24956750"/>
    <trip id="275" depart="275.00" from="-294921117#2" to="54329424"/>
    <trip id="276" depart="276.00" from="11712252" to="-11839809#2"/>
    <trip id="277" depart="277.00" from="491596671#0" to="54350001"/>
    <trip id="278" depart="278.00" from="54215624" to="550018182#0"/>
    <trip id="279" depart="279.00" from="625220727#0" to="54293039#0"/>
    <trip id="280" depart="280.00" from="146615150#1" to="-54216349#0"/>
    <trip id="281" depart="281.00" from="488125921#2" to="24957029"/>
    <trip id="282" depart="282.00" from="625479074" to="-54216349#0"/>
    <trip id="283" depart="283.00" from="572317656#1" to="11695903#3"/>
    <trip id="284" depart="284.00" from="550018190" to="11854171#0"/>
    <trip id="285" depart="285.00" from="-625220727#1" to="289501609#1"/>
    <trip id="286" depart="286.00" from="-54216349#0" to="-625866832#1"/>
    <trip id="287" depart="287.00" from="560900871#2" to="-302174172#1"/>
    <trip id="288" depart="288.00" from="146615162#0" to="54800530#0"/>
    <trip id="289" depart="289.00" from="54800525#1" to="303265990#3"/>
    <trip id="290" depart="290.00" from="302174172#1" to="54215677#0"/>
    <trip id="291" depart="291.00" from="466749735#2" to="24957077#0"/>
    <trip id="292" depart="292.00" from="54448148#1" to="550018182#1"/>
    <trip id="293" depart="293.00" from="308684520#0" to="24867249#1"/>
    <trip id="294" depart="294.00" from="54329430" to="-54800530#0"/>
    <trip id="295" depart="295.00" from="-54219346#1" to="24957029"/>
    <trip id="296" depart="296.00" from="146615161" to="153243435"/>
    <trip id="297" depart="297.00" from="-54314945#1" to="54215644"/>
    <trip id="298" depart="298.00" from="146615168" to="24956681#2"/>
    <trip id="299" depart="299.00" from="54350198" to="488125921#1"/>
    <trip id="300" depart="300.00" from="-54340593#1" to="54448157#1"/>
    <trip id="301" depart="301.00" from="625220727#0" to="488125921#1"/>
    <trip id="302" depart="302.00" from="294921162" to="-532394645"/>
    <trip id="303" depart="303.00" from="11695903#4" to="54309883#1"/>
    <trip id="304" depart="304.00" from="54350036#1" to="54448145#2"/>
    <trip id="305" depart="305.00" from="11695903#0" to="52304678"/>
    <trip id="306" depart="306.00" from="-294921124#1" to="54340593#1"/>
    <trip id="307" depart="307.00" from="-11729070#3" to="-11947620#0"/>
    <trip id="308" depart="308.00" from="11749164#0" to="-667962915#0"/>
    <trip id="309" depart="309.00" from="-55169716#5" to="-153256205#2"/>
    <trip id="310" depart="310.00" from="11818737#0" to="156470326"/>
    <trip id="311" depart="311.00" from="-491596669" to="322433955"/>
    <trip id="312" depart="312.00" from="171870233#1" to="54800519#1"/>
    <trip id="313" depart="313.00" from="52304678" to="661624475#1"/>
    <trip id="314" depart="314.00" from="54219346#0" to="-11811387#3"/>
    <trip id="315" depart="315.00" from="550018051" to="-294921117#2"/>
    <trip id="316" depart="316.00" from="55169716#1" to="11749164#6"/>
    <trip id="317" depart="317.00" from="550018213#1" to="54293033#0"/>
    <trip id="318" depart="318.00" from="153256205#3" to="54448160#0"/>
    <trip id="319" depart="319.00" from="532394634#1" to="24867249#1"/>
    <trip id="320" depart="320.00" from="550018184#2" to="-54216348"/>
    <trip id="321" depart="321.00" from="550018213#1" to="-488125926"/>
    <trip id="322" depart="322.00" from="-54309883#1" to="-488125922#1"/>
    <trip id="323" depart="323.00" from="-146615158#3" to="11960719#4"/>
    <trip id="324" depart="324.00" from="121593801" to="140069065#2"/>
    <trip id="325" depart="325.00" from="320911641#4" to="54329426"/>
    <trip id="326" depart="326.00" from="532394627#1" to="203322566#1"/>
    <trip id="327" depart="327.00" from="488125922#2" to="258055044#0"/>
    <trip id="328" depart="328.00" from="-550018184#2" to="146615158#0"/>
    <trip id="329" depart="329.00" from="54800532#1" to="488125921#1"/>
    <trip id="330" depart="330.00" from="24957023" to="550018182#1"/>
    <trip id="331" depart="331.00" from="550018033" to="625497926#7"/>
    <trip id="332" depart="332.00" from="-11839809#2" to="264591932"/>
    <trip id="333" depart="333.00" from="-146615158#4" to="11960719#3"/>
    <trip id="334" depart="334.00" from="54210147" to="625839982#1"/>
    <trip id="335" depart="335.00" from="-156470326" to="146615167#2"/>
    <trip id="336" depart="336.00" from="54329389" to="550018184#0"/>
    <trip id="337" depart="337.00" from="488125921#2" to="-108295615#1"/>
    <trip id="338" depart="338.00" from="-406040521#0" to="560900882#0"/>
    <trip id="339" depart="339.00" from="-11729070#3" to="303265980#1"/>
    <trip id="340" depart="340.00" from="121593794" to="322433963"/>
    <trip id="341" depart="341.00" from="264591820" to="625479075#1"/>
    <trip id="342" depart="342.00" from="25795333#3" to="11729070#3"/>
    <trip id="343" depart="343.00" from="11957966#0" to="294921121#3"/>
    <trip id="344" depart="344.00" from="11959395#0" to="320911641#4"/>
    <trip id="345" depart="345.00" from="320911640#1" to="550018029#3"/>
    <trip id="346" depart="346.00" from="108295615#1" to="146615150#2"/>
    <trip id="347" depart="347.00" from="-153256205#4" to="294921117#0"/>
    <trip id="348" depart="348.00" from="550018191#0" to="146615158#3"/>
    <trip id="349" depart="349.00" from="-11839809#2" to="11818737#1"/>
    <trip id="350" depart="350.00" from="533568130#0" to="24957174#4"/>
    <trip id="351" depart="351.00" from="264753383" to="-153256205#2"/>
    <trip id="352" depart="352.00" from="153243438#2" to="54329424"/>
    <trip id="353" depart="353.00" from="-54800536#1" to="24957174#4"/>
    <trip id="354" depart="354.00" from="-146615150#2" to="550018168#1"/>
    <trip id="355" depart="355.00" from="-661624479#1" to="54210163"/>
    <trip id="356" depart="356.00" from="11652868#4" to="24956925#1"/>
    <trip id="357" depart="357.00" from="115808195" to="108295615#1"/>
    <trip id="358" depart="358.00" from="54313944" to="321073328"/>
    <trip id="359" depart="359.00" from="11695903#4" to="11818737#0"/>
    <trip id="360" depart="360.00" from="316467089" to="-54800536#1"/>
    <trip id="361" depart="361.00" from="488513965#2" to="680770718#0"/>
    <trip id="362" depart="362.00" from="488125924#0" to="54800533#0"/>
    <trip id="363" depart="363.00" from="54800529#0" to="323046623#1"/>
    <trip id="364" depart="364.00" from="-24867249#2" to="11835628#1"/>
    <trip id="365" depart="365.00" from="-54800529#1" to="54210144"/>
    <trip id="366" depart="366.00" from="661624476#1" to="146615152#2"/>
    <trip id="367" depart="367.00" from="-680770719#5" to="54800525#2"/>
    <trip id="368" depart="368.00" from="315123595#3" to="54329387"/>
    <trip id="369" depart="369.00" from="-294921124#1" to="54216349#0"/>
    <trip id="370" depart="370.00" from="-54215628" to="11960719#3"/>
    <trip id="371" depart="371.00" from="156470326" to="303265984#0"/>
    <trip id="372" depart="372.00" from="11832251" to="375197213#4"/>
    <trip id="373" depart="373.00" from="11827159#0" to="-488513971"/>
    <trip id="374" depart="374.00" from="-406040523#4" to="-458657931"/>
    <trip id="375" depart="375.00" from="132781832#1" to="54448157#4"/>
    <trip id="376" depart="376.00" from="488513965#1" to="-488125924#0"/>
    <trip id="377" depart="377.00" from="-11811387#3" to="406040523#5"/>
    <trip id="378" depart="378.00" from="24957051" to="625866833#1"/>
    <trip id="379" depart="379.00" from="54219365" to="-294921124#2"/>
    <trip id="380" depart="380.00" from="24722779#0" to="54215651"/>
    <trip id="381" depart="381.00" from="-311525727#0" to="-146615159#1"/>
    <trip id="382" depart="382.00" from="65066461" to="532394634#1"/>
    <trip id="383" depart="383.00" from="11749164#2" to="-11854171#2"/>
    <trip id="384" depart="384.00" from="-54800539#2" to="-303265990#1"/>
    <trip id="385" depart="385.00" from="24956925#1" to="-146615150#0"/>
    <trip id="386" depart="386.00" from="302174171#1" to="54210147"/>
    <trip id="387" depart="387.00" from="24957033" to="-146615158#0"/>
    <trip id="388" depart="388.00" from="-55169716#5" to="54210156"/>
    <trip id="389" depart="389.00" from="54448154#0" to="54329425"/>
    <trip id="390" depart="390.00" from="-661624476#1" to="54293026"/>
    <trip id="391" depart="391.00" from="146615170" to="-323046623#1"/>
    <trip id="392" depart="392.00" from="406040523#1" to="11713124#1"/>
    <trip id="393" depart="393.00" from="464936042#1" to="54219346#1"/>
    <trip id="394" depart="394.00" from="625179910#2" to="24957174#4"/>
    <trip id="395" depart="395.00" from="625866833#3" to="375197213#2"/>
    <trip id="396" depart="396.00" from="54219354" to="11835628#1"/>
    <trip id="397" depart="397.00" from="-54293516" to="131436381#1"/>
    <trip id="398" depart="398.00" from="54210156" to="-146615158#0"/>
    <trip id="399" depart="399.00" from="550018166#1" to="54219353"/>
    <trip id="400" depart="400.00" from="-54800539#2" to="322433955"/>
    <trip id="401" depart="401.00" from="11653776#0" to="54349978#3"/>
    <trip id="402" depart="402.00" from="322433963" to="550018059"/>
    <trip id="403" depart="403.00" from="-54800535#1" to="24957077#0"/>
    <trip id="404" depart="404.00" from="625220728#1" to="-11854171#1"/>
    <trip id="405" depart="405.00" from="54448146#6" to="114354927"/>
    <trip id="406" depart="406.00" from="-54219346#1" to="54210148"/>
    <trip id="407" depart="407.00" from="294921117#3" to="294921124#2"/>
    <trip id="408" depart="408.00" from="52304687#0" to="294921124#2"/>
    <trip id="409" depart="409.00" from="-406040521#0" to="-311525727#0"/>
    <trip id="410" depart="410.00" from="52304678" to="-11854538#3"/>
    <trip id="411" depart="411.00" from="491596671#0" to="11854171#2"/>
    <trip id="412" depart="412.00" from="-11950810" to="11960719#3"/>
    <trip id="413" depart="413.00" from="550018047#0" to="54800536#0"/>
    <trip id="414" depart="414.00" from="146615170" to="55169716#1"/>
    <trip id="415" depart="415.00" from="-54800526#1" to="54215656"/>
    <trip id="416" depart="416.00" from="54448148#1" to="11854171#5"/>
    <trip id="417" depart="417.00" from="11818737#1" to="264591930#1"/>